# *********************
# External Forcing Data
# *********************
#
 &EXF_NML_01
 exf_albedo        = 0.1503,
 exf_scal_BulkCdn  = 1.0106,
 exf_iprec         = 32,
 exf_yftype        = 'RL',
 useExfYearlyFields= .TRUE.,
 useExfCheckRange  = .FALSE.,
 useRelativeWind   = .FALSE.,
 &
#
 &EXF_NML_02
 precipfile        = 'jra3q/jra3q_gpcp_rain',
 atempfile         = 'jra3q/jra3q_tmp2m_degC',
 aqhfile           = 'jra3q/jra3q_spfh2m',
 swdownfile        = 'jra3q/jra3q_dsw',
 lwdownfile        = 'jra3q/jra3q_dlw',
 uwindfile         = 'jra3q/jra3q_u10m',
 vwindfile         = 'jra3q/jra3q_v10m',
# runofffile        = 'runoffp6615-360x180x12.bin',
#
 precipstartdate1  = 20240101,
 precipstartdate2  = 003000,
 precipperiod      = 3600.0,
 atempstartdate1   = 20240101,
 atempstartdate2   = 000000,
 atempperiod       = 3600.0,
 aqhstartdate1     = 20240101,
 aqhstartdate2     = 000000,
 aqhperiod         = 3600.0,
 swdownstartdate1  = 20240101,
 swdownstartdate2  = 003000,
 swdownperiod      = 3600.0,
 lwdownstartdate1  = 20240101,
 lwdownstartdate2  = 003000,
 lwdownperiod      = 3600.0,
 uwindstartdate1   = 20240101,
 uwindstartdate2   = 000000,
 uwindperiod       = 3600.0,
 vwindstartdate1   = 20240101,
 vwindstartdate2   = 000000,
 vwindperiod       = 3600.0,
# "*period=-12" specifies monthly-mean forcing
# runoffperiod      = -12,
 &
#
 &EXF_NML_03
 exf_offset_atemp  = 273.15,
 exf_inscal_swdown = -1.,
 exf_inscal_lwdown = -1., 
# exf_inscal_runoff = 3.1710e-08,
 &
#
 &EXF_NML_04


 precip_lon0       = 0.0D0,
 precip_lon_inc    = 0.375D0,
 precip_lat0       = -89.7132492D0,
 precip_lat_inc    = 0.3714721D0,0.3736626D0,0.3741583D0,0.3743463D0,0.3744372D0,0.3744881D0,0.3745193D0,0.3745399D0,
                     0.3745542D0,0.3745645D0,0.3745722D0,0.3745781D0,0.3745827D0,0.3745863D0,0.3745893D0,
                     33*0.374603536309304D0, 383*0.374609290606391D0, 33*0.374603536309304D0,
                     0.3745893D0,0.3745863D0,0.3745827D0,0.3745781D0,0.3745722D0,0.3745645D0,0.3745542D0,
                     0.3745399D0,0.3745193D0,0.3744881D0,0.3744372D0,0.3743463D0,0.3741583D0,0.3736626D0,0.3714721D0,
 precip_nlon       = 960,
 precip_nlat       = 480,
#
 atemp_lon0       = 0.0D0,
 atemp_lon_inc    = 0.375D0,
 atemp_lat0       = -89.7132492D0,
 atemp_lat_inc    = 0.3714721D0,0.3736626D0,0.3741583D0,0.3743463D0,0.3744372D0,0.3744881D0,0.3745193D0,0.3745399D0,
                     0.3745542D0,0.3745645D0,0.3745722D0,0.3745781D0,0.3745827D0,0.3745863D0,0.3745893D0,
                     33*0.374603536309304D0, 383*0.374609290606391D0, 33*0.374603536309304D0,
                     0.3745893D0,0.3745863D0,0.3745827D0,0.3745781D0,0.3745722D0,0.3745645D0,0.3745542D0,
                     0.3745399D0,0.3745193D0,0.3744881D0,0.3744372D0,0.3743463D0,0.3741583D0,0.3736626D0,0.3714721D0,
 atemp_nlon       = 960,
 atemp_nlat       = 480,
#
 aqh_lon0       = 0.0D0,
 aqh_lon_inc    = 0.375D0,
 aqh_lat0       = -89.7132492D0,
 aqh_lat_inc    = 0.3714721D0,0.3736626D0,0.3741583D0,0.3743463D0,0.3744372D0,0.3744881D0,0.3745193D0,0.3745399D0,
                     0.3745542D0,0.3745645D0,0.3745722D0,0.3745781D0,0.3745827D0,0.3745863D0,0.3745893D0,
                     33*0.374603536309304D0, 383*0.374609290606391D0, 33*0.374603536309304D0,
                     0.3745893D0,0.3745863D0,0.3745827D0,0.3745781D0,0.3745722D0,0.3745645D0,0.3745542D0,
                     0.3745399D0,0.3745193D0,0.3744881D0,0.3744372D0,0.3743463D0,0.3741583D0,0.3736626D0,0.3714721D0,
 aqh_nlon       = 960,
 aqh_nlat       = 480,
#
 swdown_lon0       = 0.0D0,
 swdown_lon_inc    = 0.375D0,
 swdown_lat0       = -89.7132492D0,
 swdown_lat_inc    = 0.3714721D0,0.3736626D0,0.3741583D0,0.3743463D0,0.3744372D0,0.3744881D0,0.3745193D0,0.3745399D0,
                     0.3745542D0,0.3745645D0,0.3745722D0,0.3745781D0,0.3745827D0,0.3745863D0,0.3745893D0,
                     33*0.374603536309304D0, 383*0.374609290606391D0, 33*0.374603536309304D0,
                     0.3745893D0,0.3745863D0,0.3745827D0,0.3745781D0,0.3745722D0,0.3745645D0,0.3745542D0,
                     0.3745399D0,0.3745193D0,0.3744881D0,0.3744372D0,0.3743463D0,0.3741583D0,0.3736626D0,0.3714721D0,
 swdown_nlon       = 960,
 swdown_nlat       = 480,
#
 lwdown_lon0       = 0.0D0,
 lwdown_lon_inc    = 0.375D0,
 lwdown_lat0       = -89.7132492D0,
 lwdown_lat_inc    = 0.3714721D0,0.3736626D0,0.3741583D0,0.3743463D0,0.3744372D0,0.3744881D0,0.3745193D0,0.3745399D0,
                     0.3745542D0,0.3745645D0,0.3745722D0,0.3745781D0,0.3745827D0,0.3745863D0,0.3745893D0,
                     33*0.374603536309304D0, 383*0.374609290606391D0, 33*0.374603536309304D0,
                     0.3745893D0,0.3745863D0,0.3745827D0,0.3745781D0,0.3745722D0,0.3745645D0,0.3745542D0,
                     0.3745399D0,0.3745193D0,0.3744881D0,0.3744372D0,0.3743463D0,0.3741583D0,0.3736626D0,0.3714721D0,
 lwdown_nlon       = 960,
 lwdown_nlat       = 480,
#
 uwind_lon0       = 0.0D0,
 uwind_lon_inc    = 0.375D0,
 uwind_lat0       = -89.7132492D0,
 uwind_lat_inc    = 0.3714721D0,0.3736626D0,0.3741583D0,0.3743463D0,0.3744372D0,0.3744881D0,0.3745193D0,0.3745399D0,
                     0.3745542D0,0.3745645D0,0.3745722D0,0.3745781D0,0.3745827D0,0.3745863D0,0.3745893D0,
                     33*0.374603536309304D0, 383*0.374609290606391D0, 33*0.374603536309304D0,
                     0.3745893D0,0.3745863D0,0.3745827D0,0.3745781D0,0.3745722D0,0.3745645D0,0.3745542D0,
                     0.3745399D0,0.3745193D0,0.3744881D0,0.3744372D0,0.3743463D0,0.3741583D0,0.3736626D0,0.3714721D0,
 uwind_nlon       = 960,
 uwind_nlat       = 480,
#
 vwind_lon0       = 0.0D0,
 vwind_lon_inc    = 0.375D0,
 vwind_lat0       = -89.7132492D0,
 vwind_lat_inc    = 0.3714721D0,0.3736626D0,0.3741583D0,0.3743463D0,0.3744372D0,0.3744881D0,0.3745193D0,0.3745399D0,
                     0.3745542D0,0.3745645D0,0.3745722D0,0.3745781D0,0.3745827D0,0.3745863D0,0.3745893D0,
                     33*0.374603536309304D0, 383*0.374609290606391D0, 33*0.374603536309304D0,
                     0.3745893D0,0.3745863D0,0.3745827D0,0.3745781D0,0.3745722D0,0.3745645D0,0.3745542D0,
                     0.3745399D0,0.3745193D0,0.3744881D0,0.3744372D0,0.3743463D0,0.3741583D0,0.3736626D0,0.3714721D0,
 vwind_nlon       = 960,
 vwind_nlat       = 480,
#
# runoff_lon0       = 0.50D0,
# runoff_lon_inc    = 1.0D0,
# runoff_lat0       = -89.5D0,
# runoff_lat_inc    = 179*1.,
# runoff_nlon       = 360,
# runoff_nlat       = 180,
 &
